* CMOS TG
.subckt cmos_tg PORT1 PORT2 P_CTRL N_CTRL PBODY NBODY

.model P1 PMOS (LEVEL = 6 VTO= -0.4  UO = 86.88 TOX = 1E-08 GAMMA = -0.4 LAMBDA = -0.1 NSUB = 1.6E+15)
.model N1 NMOS (LEVEL = 6 VTO = 0.4 UO = 333.333 TOX = 1E-08 GAMMA = 0.4 LAMBDA = 0.06 NSUB = 1.6E+15)

M1 PORT2 P_CTRL PORT1 PBODY P1 L = 0.25u W = 0.5u
M2 PORT2 N_CTRL PORT1 NBODY N1 L = 0.25u W = 0.5u 

.ends
